Circuit: * D:\Users\javi_\GitHub\Microwatt_Board\Simu_Microwatt_Board\amplifier_v2.asc

WARNING: Specified period is not longer than the sum of Trise, Tfall, and Ton for i1.  Increasing period to 0.5
Direct Newton iteration for .op point succeeded.

Date: Sun Mar 06 22:40:44 2022
Total elapsed time: 0.306 seconds.

tnom = 27
temp = 27
method = modified trap
totiter = 2289
traniter = 2281
tranpoints = 1140
accept = 1123
rejected = 17
matrix size = 591
fillins = 1057
solver = Normal
Thread vector: 54.8/16.3[8] 19.0/8.2[8] 18.4/7.5[8] 3.0/4.1[1]  2592/500
Matrix Compiler1: 109.15 KB object code size  49.0/26.8/[7.0]
Matrix Compiler2: 69.82 KB object code size  18.4/19.7/[4.6]

