Circuit: * D:\Users\javi_\GitHub\Microwatt_Board\Simu_Microwatt_Board\amplifier_v2.asc

WARNING: Specified period is not longer than the sum of Trise, Tfall, and Ton for i1.  Increasing period to 0.5
Direct Newton iteration for .op point succeeded.

Date: Sun Mar 06 01:31:46 2022
Total elapsed time: 0.267 seconds.

tnom = 27
temp = 27
method = modified trap
totiter = 2361
traniter = 2356
tranpoints = 1173
accept = 1149
rejected = 24
matrix size = 555
fillins = 1033
solver = Normal
Thread vector: 33.9/22.4[8] 15.8/6.3[8] 13.8/8.0[8] 2.5/3.8[1]  2592/500
Matrix Compiler1: 103.99 KB object code size  42.7/26.1/[5.6]
Matrix Compiler2: 66.30 KB object code size  17.8/18.6/[2.8]

