Circuit: * D:\Users\javi_\GitHub\Microwatt_Board\Simu_Microwatt_Board\amplifier.asc

WARNING: Specified period is not longer than the sum of Trise, Tfall, and Ton for i1.  Increasing period to 0.5
WARNING: Less than two connections to node VREF.  This node is used by V3.
Direct Newton iteration for .op point succeeded.
Ignoring empty pin current: Ix(u1:6)
Ignoring empty pin current: Ix(u5:6)
Ignoring empty pin current: Ix(u6:6)
Ignoring empty pin current: Ix(u3:6)
Ignoring empty pin current: Ix(u1:6)
Ignoring empty pin current: Ix(u5:6)
Ignoring empty pin current: Ix(u6:6)
Ignoring empty pin current: Ix(u3:6)

Date: Tue Mar 01 23:47:49 2022
Total elapsed time: 0.102 seconds.

tnom = 27
temp = 27
method = modified trap
totiter = 2289
traniter = 2274
tranpoints = 1138
accept = 1121
rejected = 17
matrix size = 191
fillins = 91
solver = Normal
Thread vector: 16.6/10.4[3] 5.3/2.4[3] 3.3/1.7[3] 0.7/1.3[1]  2592/500
Matrix Compiler1: 12.99 KB object code size  2.3/1.7/[0.7]
Matrix Compiler2: 16.64 KB object code size  1.8/2.1/[1.0]

