Circuit: * D:\Users\javi_\GitHub\Microwatt_Board\Simu_Microwatt_Board\amplifier.asc

WARNING: Specified period is not longer than the sum of Trise, Tfall, and Ton for i1.  Increasing period to 0.5
Direct Newton iteration for .op point succeeded.
Ignoring empty pin current: Ix(u1:6)
Ignoring empty pin current: Ix(u1:6)

Date: Sat Mar 05 21:03:56 2022
Total elapsed time: 0.065 seconds.

tnom = 27
temp = 27
method = modified trap
totiter = 2288
traniter = 2273
tranpoints = 1137
accept = 1120
rejected = 17
matrix size = 83
fillins = 50
solver = Normal
Thread vector: 7.3/4.8[2] 1.6/1.5[1] 1.1/1.1[1] 0.2/1.0[1]  2592/500
Matrix Compiler1: 5.50 KB object code size  1.0/0.5/[0.2]
Matrix Compiler2: 7.53 KB object code size  0.5/0.7/[0.3]

