Circuit: * D:\Users\javi_\Desktop\Simu_Microwatt_Board\Draft1.asc

Questionable use of curly braces in "b§e_abm1 n523010 0 v={min(v(vxx),(v(vzz)+({ilim}*{rout})))}"
    Error: undefined symbol in: "min([v](vxx),(v(vzz)+((ilim)*(rout))))"
WARNING: Specified period is not longer than the sum of Trise, Tfall, and Ton for i2.  Increasing period to 0.51
Limiting fall time of source v4 to 0.002
WARNING: Node U2:N1980383 is floating.
WARNING: Node U2:N1980745 is floating.

Direct Newton iteration failed to find .op point.  (Use ".option noopiter" to skip.)
Starting Gmin stepping
Gmin = 10
Gmin = 1.07374
Gmin = 0.115292
vernier = 0.5
vernier = 0.25
Gmin = 0.0302231
vernier = 0.125
vernier = 0.0625
vernier = 0.03125
vernier = 0.015625
vernier = 0.0078125
Gmin = 0.0302231
vernier = 0.00390625
vernier = 0.00195313
vernier = 0.000976563
vernier = 0.000488281
Gmin = 0
Gmin stepping failed

Starting source stepping with srcstepmethod=0
Source Step = 3.0303%
vernier = 0.25
Source Step = 7.57576%
Source Step = 15.1515%
Source Step = 22.7273%
Source Step = 30.303%
Source Step = 37.8788%
vernier = 0.375
Source Step = 44.3359%
Source Step = 44.5135%
Source Step = 44.6911%
Source Step = 44.8686%
Source Step = 45.0151%
Source Step = 45.0595%
Source Step = 45.1039%
Source Step = 45.1483%
Source Step = 45.1926%
Source Step = 45.237%
vernier = 0.00219727
Source Step = 45.2992%
Source Step = 45.3658%
Source Step = 45.4324%
Source Step = 45.4989%
Source Step = 45.5655%
vernier = 0.0032959
Source Step = 45.6554%
Source Step = 45.7553%
Source Step = 45.8552%
Source Step = 45.955%
Source Step = 46.0549%
vernier = 0.00494385
Source Step = 46.1847%
Source Step = 46.3346%
Source Step = 46.4844%
Source Step = 46.6342%
Source Step = 46.784%
vernier = 0.00741577
Source Step = 46.9713%
Source Step = 47.196%
Source Step = 47.4207%
Source Step = 47.6454%
Source Step = 47.8702%
vernier = 0.0111237
Source Step = 48.1398%
Source Step = 48.4769%
Source Step = 48.814%
Source Step = 49.1511%
Source Step = 49.4881%
vernier = 0.0166855
Source Step = 49.8758%
Source Step = 50.3814%
Source Step = 50.887%
Source Step = 51.3926%
Source Step = 51.8983%
vernier = 0.0250282
Source Step = 52.4544%
Source Step = 53.2129%
Source Step = 53.9713%
Source Step = 54.7297%
Source Step = 55.4882%
vernier = 0.0375423
Source Step = 56.2845%
Source Step = 57.4222%
Source Step = 58.5598%
Source Step = 59.6975%
Source Step = 60.8351%
Source Step = 61.9728%
vernier = 0.0563135
Source Step = 63.6792%
Source Step = 65.3857%
Source Step = 67.0922%
Source Step = 68.7986%
Source Step = 70.5051%
vernier = 0.0844703
Source Step = 72.9795%
Source Step = 75.5392%
Source Step = 78.0989%
Source Step = 80.6586%
Source Step = 83.2183%
vernier = 0.126705
Source Step = 86.8019%
Source Step = 90.6415%
Source Step = 94.481%
Source Step = 98.3206%
Source Step = 99.4484%
Source Step = 99.6884%
Source Step = 99.7964%
Starting source stepping with srcstepmethod=1
Source Step = 3.0303%
vernier = 0.25
Source Step = 1.70455%
Source Step = 3.59848%
Source Step = 5.49242%
Source Step = 7.38636%
Source Step = 9.2803%
vernier = 0.09375
Source Step = 11.9318%
Source Step = 14.7727%
Source Step = 17.6136%
Source Step = 20.4545%
Source Step = 23.2955%
vernier = 0.140625
Source Step = 27.1307%
Source Step = 31.392%
Source Step = 35.6534%
Source Step = 39.9148%
Source Step = 44.1761%
vernier = 0.210938
Source Step = 49.7159%
Source Step = 56.108%
Source Step = 62.5%
Source Step = 68.892%
Source Step = 75.2841%
vernier = 0.316406
Source Step = 83.2741%
Source Step = 91.1843%
vernier = 0.0197754
Source stepping failed

Pseudo Transient succeeded in finding the operating point at 39.126 s.

Date: Sat Feb 26 12:39:59 2022
Total elapsed time: 12.491 seconds.

tnom = 27
temp = 27
method = modified trap
totiter = 20832
traniter = 6003
tranpoints = 1850
accept = 1634
rejected = 288
matrix size = 424
fillins = 919
solver = Normal
Thread vector: 48.1/22.3[8] 8.5/6.1[5] 16.8/8.3[8] 1.7/3.5[1]  2592/500
Matrix Compiler1: 82.45 KB object code size  27.2/11.9/[5.4]
Matrix Compiler2: 51.11 KB object code size  13.2/16.4/[3.9]

