Circuit: * D:\Users\javi_\GitHub\Microwatt_Board\Simu_Microwatt_Board\Draft1.asc

Questionable use of curly braces in "b§e_abm1 n523010 0 v={min(v(vxx),(v(vzz)+({ilim}*{rout})))}"
    Error: undefined symbol in: "min([v](vxx),(v(vzz)+((ilim)*(rout))))"
WARNING: Specified period is not longer than the sum of Trise, Tfall, and Ton for i1.  Increasing period to 0.5
WARNING: Node U2:N1980383 is floating.
WARNING: Node U2:N1980745 is floating.

Direct Newton iteration failed to find .op point.  (Use ".option noopiter" to skip.)
Starting Gmin stepping
Gmin = 10
Gmin = 1.07374
Gmin = 0.115292
Gmin = 0.0123794
vernier = 0.5
vernier = 0.25
Gmin = 0.00499067
vernier = 0.125
vernier = 0.0625
vernier = 0.0833333
Gmin = 0.00470881
vernier = 0.111111
vernier = 0.0555555
vernier = 0.0277778
Gmin = 0.00399388
vernier = 0.0138889
vernier = 0.00694444
vernier = 0.00347222
vernier = 0.00173611
vernier = 0.000868055
vernier = 0.000434028
Gmin = 0
Gmin stepping failed

Starting source stepping with srcstepmethod=0
Source Step = 3.0303%
vernier = 0.25
Source Step = 7.57576%
Source Step = 15.1515%
Source Step = 22.7273%
Source Step = 30.303%
Source Step = 37.8788%
vernier = 0.375
Source Step = 44.3359%
vernier = 0.00146484
Source Step = 44.3626%
Source Step = 44.407%
Source Step = 44.4513%
Source Step = 44.4957%
Source Step = 44.5401%
vernier = 0.00219727
Source Step = 44.6001%
Source Step = 44.6666%
Source Step = 44.7332%
Source Step = 44.7998%
Source Step = 44.8664%
vernier = 0.0032959
Source Step = 44.9529%
Source Step = 45.0528%
Source Step = 45.1527%
Source Step = 45.2526%
Source Step = 45.3525%
vernier = 0.00494385
Source Step = 45.4773%
Source Step = 45.6271%
Source Step = 45.7769%
Source Step = 45.9267%
Source Step = 46.0765%
vernier = 0.00741577
Source Step = 46.2563%
Source Step = 46.481%
Source Step = 46.7058%
Source Step = 46.9305%
Source Step = 47.1552%
vernier = 0.0111237
Source Step = 47.4136%
Source Step = 47.7507%
Source Step = 48.0878%
Source Step = 48.4249%
Source Step = 48.762%
vernier = 0.0166855
Source Step = 49.1327%
Source Step = 49.6384%
Source Step = 50.144%
Source Step = 50.6496%
Source Step = 51.1552%
vernier = 0.0250282
Source Step = 51.6861%
Source Step = 52.4446%
Source Step = 53.203%
Source Step = 53.9614%
Source Step = 54.7199%
Source Step = 55.4783%
vernier = 0.0375423
Source Step = 56.6159%
Source Step = 57.7536%
Source Step = 58.8912%
Source Step = 60.0289%
Source Step = 61.1665%
vernier = 0.0563135
Source Step = 62.8161%
Source Step = 64.5226%
Source Step = 66.229%
Source Step = 67.9355%
Source Step = 69.642%
vernier = 0.0844703
Source Step = 72.031%
Source Step = 74.5908%
Source Step = 77.1505%
Source Step = 79.7102%
Source Step = 82.2699%
vernier = 0.126705
Source Step = 85.7255%
Source Step = 89.565%
Source Step = 90.3629%
Starting source stepping with srcstepmethod=1
Source Step = 3.0303%
Source stepping failed

Pseudo Transient succeeded in finding the operating point at 34.2584 s.

Date: Thu Feb 24 23:18:22 2022
Total elapsed time: 10.456 seconds.

tnom = 27
temp = 27
method = modified trap
totiter = 31162
traniter = 7632
tranpoints = 2709
accept = 2298
rejected = 766
matrix size = 420
fillins = 818
solver = Normal
Thread vector: 22.8/13.1[8] 8.8/3.6[8] 13.5/4.5[8] 1.7/2.9[1]  2592/500
Matrix Compiler1: 72.86 KB object code size  27.9/13.7/[5.9]
Matrix Compiler2: 48.86 KB object code size  10.4/13.4/[3.1]

