Circuit: * D:\Users\javi_\GitHub\Microwatt_Board\Simu_Microwatt_Board\main.asc

Questionable use of curly braces in "b§e_abmgate yint 0 v={if(v(a)>{{vthresh}},{{vdd}},{{vss}})}"
    Error: undefined symbol in: "if([v](a)>((vthresh)),((vdd)),((vss)))"
WARNING: Less than two connections to node U2:REF5V.  This node is used by V:U2:1.
WARNING: Less than two connections to node VREF.  This node is used by V3.
Direct Newton iteration for .op point succeeded.
Ignoring empty pin current: Ix(u2:vin)
Ignoring empty pin current: Ix(u2:fb)
Ignoring empty pin current: Ix(u7:6)
Ignoring empty pin current: Ix(u2:vin)
Ignoring empty pin current: Ix(u2:fb)
Ignoring empty pin current: Ix(u7:6)
Heightened Def Con from 0.000200043 to 0.000200044
Heightened Def Con from 0.000253384 to 0.000253385
Heightened Def Con from 0.000543452 to 0.000543453
Heightened Def Con from 0.000665136 to 0.000665137
Heightened Def Con from 0.000993535 to 0.000993535
Heightened Def Con from 0.00217687 to 0.00217688
Heightened Def Con from 0.00327733 to 0.00327733
Heightened Def Con from 0.00352404 to 0.00352404
Heightened Def Con from 0.00362406 to 0.00362406
Heightened Def Con from 0.00394913 to 0.00394913
Heightened Def Con from 0.0039658 to 0.0039658
Heightened Def Con from 0.00396913 to 0.00396913
Heightened Def Con from 0.00513103 to 0.00513103
Heightened Def Con from 0.00513103 to 0.00513103
Heightened Def Con from 0.00589952 to 0.00589952
Heightened Def Con from 0.00638795 to 0.00638795
Heightened Def Con from 0.00683137 to 0.00683137
Heightened Def Con from 0.00686304 to 0.00686304
Heightened Def Con from 0.00698141 to 0.00698141
Heightened Def Con from 0.00757818 to 0.00757819
Heightened Def Con from 0.0076882 to 0.0076882
Heightened Def Con from 0.00796326 to 0.00796326
Heightened Def Con from 0.00820998 to 0.00820998
Heightened Def Con from 0.00854671 to 0.00854671
Heightened Def Con from 0.00861839 to 0.00861839
Heightened Def Con from 0.0086284 to 0.0086284
Heightened Def Con from 0.00933854 to 0.00933854

Date: Wed Mar 02 20:33:10 2022
Total elapsed time: 323.413 seconds.

tnom = 27
temp = 27
method = modified trap
totiter = 23645213
traniter = 23645172
tranpoints = 5819343
accept = 4143623
rejected = 1675747
matrix size = 159
fillins = 116
solver = Normal
Thread vector: 12.6/9.0[4] 3.4/2.1[4] 5.2/2.0[4] 0.6/1.5[1]  2592/500
Matrix Compiler1: 9.97 KB object code size  2.4/1.3/[0.8]
Matrix Compiler2: 13.04 KB object code size  1.2/2.8/[0.7]

