Circuit: * D:\Users\javi_\GitHub\Microwatt_Board\Simu_Microwatt_Board\power_supply.asc

Questionable use of curly braces in "b§e_abm1 n523010 0 v={min(v(vxx),(v(vzz)+({ilim}*{rout})))}"
    Error: undefined symbol in: "min([v](vxx),(v(vzz)+((ilim)*(rout))))"
Questionable use of curly braces in "b§e_abmgate yint 0 v={if(v(a)>{{vthresh}},{{vdd}},{{vss}})}"
    Error: undefined symbol in: "if([v](a)>((vthresh)),((vdd)),((vss)))"
WARNING: Less than two connections to node U4:REF5V.  This node is used by V:U4:1.
Direct Newton iteration for .op point succeeded.
Ignoring empty pin current: Ix(u4:vin)
Ignoring empty pin current: Ix(u4:fb)
Ignoring empty pin current: Ix(u4:vin)
Ignoring empty pin current: Ix(u4:fb)
Heightened Def Con from 0.00191806 to 0.00191806

Date: Sat Mar 05 13:04:40 2022
Total elapsed time: 22.984 seconds.

tnom = 27
temp = 27
method = modified trap
totiter = 2631323
traniter = 2631282
tranpoints = 840238
accept = 635909
rejected = 204330
matrix size = 119
fillins = 77
solver = Normal
Thread vector: 6.2/4.4[2] 1.2/1.3[1] 1.9/1.5[2] 0.3/0.9[1]  2592/500
Matrix Compiler1: 5.97 KB object code size  0.9/0.5/[0.3]
Matrix Compiler2: 8.46 KB object code size  0.4/1.0/[0.4]

