Circuit: * D:\Users\javi_\GitHub\Microwatt_Board\Simu_Microwatt_Board\power_supply.asc

Questionable use of curly braces in "b§e_abm1 n523010 0 v={min(v(vxx),(v(vzz)+({ilim}*{rout})))}"
    Error: undefined symbol in: "min([v](vxx),(v(vzz)+((ilim)*(rout))))"
Questionable use of curly braces in "b§e_abmgate yint 0 v={if(v(a)>{{vthresh}},{{vdd}},{{vss}})}"
    Error: undefined symbol in: "if([v](a)>((vthresh)),((vdd)),((vss)))"
WARNING: Less than two connections to node U4:REF5V.  This node is used by V:U4:1.
Direct Newton iteration for .op point succeeded.
Ignoring empty pin current: Ix(u4:vin)
Ignoring empty pin current: Ix(u4:fb)
Ignoring empty pin current: Ix(u4:vin)
Ignoring empty pin current: Ix(u4:fb)
Heightened Def Con from 0.00384744 to 0.00384744

Date: Wed Mar 02 20:11:51 2022
Total elapsed time: 46.039 seconds.

tnom = 27
temp = 27
method = modified trap
totiter = 5320231
traniter = 5320190
tranpoints = 1683483
accept = 1269767
rejected = 413717
matrix size = 119
fillins = 77
solver = Normal
Thread vector: 12.9/6.4[2] 3.2/2.2[2] 4.3/2.4[2] 0.3/1.1[1]  2592/500
Matrix Compiler1: 5.97 KB object code size  1.3/0.8/[0.3]
Matrix Compiler2: 8.46 KB object code size  0.7/1.8/[0.4]

