Circuit: * D:\Users\javi_\GitHub\Microwatt_Board\Simu_Microwatt_Board\power_supply_5.asc

Questionable use of curly braces in "b§e_abmgate yint 0 v={if(v(a)>{{vthresh}},{{vdd}},{{vss}})}"
    Error: undefined symbol in: "if([v](a)>((vthresh)),((vdd)),((vss)))"
WARNING: Less than two connections to node U4:REF5V.  This node is used by V:U4:1.
Direct Newton iteration for .op point succeeded.
Ignoring empty pin current: Ix(u4:vin)
Ignoring empty pin current: Ix(u4:fb)
Ignoring empty pin current: Ix(u4:vin)
Ignoring empty pin current: Ix(u4:fb)

Date: Sun Mar 06 21:57:15 2022
Total elapsed time: 93.445 seconds.

tnom = 27
temp = 27
method = modified trap
totiter = 14204669
traniter = 14204628
tranpoints = 4559211
accept = 3473979
rejected = 1085232
matrix size = 78
fillins = 42
solver = Normal
Matrix Compiler1: 3.37 KB object code size  0.6/0.3/[0.2]
Matrix Compiler2: 5.30 KB object code size  0.3/0.7/[0.3]

